mtd/fot_linearization/37Bus_copy/ieee37_Curr_Elem.Txt

CIRCUIT ELEMENT CURRENTS

(Currents into element from indicated bus)

Power Delivery Elements

  Bus     Phase    Magnitude, A     Angle      (Real)   +j  (Imag)

ELEMENT = "Vsource.SOURCE"
SOURCEBUS     1           8.4834 /_  142.2 =    -6.6998 +j    5.2039
SOURCEBUS     2           6.3557 /_   26.6 =     5.6809 +j    2.8501
SOURCEBUS     3           8.1182 /_  -82.8 =     1.0189 +j    -8.054
------------
SOURCEBUS     0           8.4834 /_  -37.8 =     6.6998 +j   -5.2039
SOURCEBUS     0           6.3557 /_ -153.4 =    -5.6809 +j   -2.8501
SOURCEBUS     0           8.1182 /_   97.2 =    -1.0189 +j     8.054

ELEMENT = "Transformer.SUBXF"
SOURCEBUS     1           8.4834 /_  -37.8 =     6.6998 +j   -5.2039
SOURCEBUS     2           6.3557 /_ -153.4 =    -5.6809 +j   -2.8501
SOURCEBUS     3           8.1182 /_   97.2 =    -1.0189 +j     8.054
SOURCEBUS     0                0 /_    0.0 =          0 +j         0
------------
799           1           406.49 /_  142.2 =    -321.03 +j    249.35
799           2           304.55 /_   26.6 =     272.21 +j    136.57
799           3              389 /_  -82.8 =     48.821 +j   -385.92
799           0                0 /_    0.0 =          0 +j         0

ELEMENT = "Transformer.XFM1"
709           1      3.8089E-005 /_  -94.7 =  -3.1029E-006 +j -3.7963E-005
709           2      4.0049E-005 /_  145.9 =  -3.3171E-005 +j 2.2442E-005
709           3       3.945E-005 /_   23.2 =  3.6268E-005 +j 1.5521E-005
709           0                0 /_    0.0 =          0 +j         0
------------
775           1       5.457E-012 /_   90.0 =          0 +j 5.457E-012
775           2      4.8978E-012 /_ -111.8 =  -1.819E-012 +j -4.5475E-012
775           3      5.1449E-012 /_  -45.0 =  3.638E-012 +j -3.638E-012
775           0                0 /_    0.0 =          0 +j         0

ELEMENT = "Line.L1"
701           1           268.17 /_  -34.8 =     220.27 +j   -152.95
701           2           221.63 /_ -152.9 =     -197.3 +j   -100.97
701           3           254.95 /_   95.2 =    -22.975 +j    253.92
------------
702           1            268.2 /_  145.2 =    -220.27 +j    153.01
702           2           221.66 /_   27.1 =     197.35 +j    100.93
702           3           254.97 /_  -84.8 =     22.916 +j   -253.94

ELEMENT = "Line.L2"
702           1           21.153 /_  -56.8 =     11.598 +j    -17.69
702           2           20.772 /_ -125.0 =    -11.919 +j   -17.012
702           3           34.704 /_   89.5 =    0.32093 +j    34.702
------------
705           1           21.162 /_  123.2 =    -11.597 +j    17.702
705           2           20.772 /_   55.0 =     11.929 +j    17.005
705           3           34.709 /_  -90.5 =   -0.33244 +j   -34.707

ELEMENT = "Line.L3"
702           1           59.594 /_  -40.9 =      45.06 +j   -39.001
702           2           72.241 /_ -137.4 =    -53.183 +j   -48.892
702           3           88.267 /_   84.7 =     8.1226 +j    87.893
------------
713           1           59.602 /_  139.1 =    -45.059 +j    39.015
713           2           72.244 /_   42.6 =     53.194 +j    48.884
713           3           88.274 /_  -95.3 =    -8.1355 +j   -87.898

ELEMENT = "Line.L4"
702           1           189.86 /_  -30.5 =     163.61 +j    -96.32
702           2           136.81 /_ -165.2 =    -132.25 +j   -35.027
702           3           135.04 /_  103.4 =     -31.36 +j    131.35
------------
703           1            189.9 /_  149.5 =     -163.6 +j    96.405
703           2           136.87 /_   14.8 =     132.33 +j    34.977
703           3           135.05 /_  -76.6 =     31.279 +j   -131.38

ELEMENT = "Line.L5"
703           1           43.048 /_  -24.8 =      39.08 +j   -18.053
703           2           35.887 /_ -166.7 =    -34.926 +j   -8.2493
703           3           26.628 /_   99.0 =    -4.1542 +j    26.302
------------
727           1           43.051 /_  155.2 =    -39.079 +j     18.06
727           2           35.892 /_   13.3 =     34.932 +j     8.245
727           3            26.63 /_  -81.0 =     4.1473 +j   -26.305

ELEMENT = "Line.L6"
703           1           147.12 /_  -32.2 =     124.52 +j   -78.352
703           2              101 /_ -164.7 =      -97.4 +j   -26.728
703           3           108.52 /_  104.5 =    -27.125 +j    105.08
------------
730           1           147.13 /_  147.8 =    -124.52 +j    78.375
730           2           101.02 /_   15.3 =      97.42 +j    26.714
730           3           108.53 /_  -75.5 =     27.103 +j   -105.09

ELEMENT = "Line.L7"
704           1           23.096 /_    1.3 =      23.09 +j   0.52725
704           2            26.01 /_ -169.7 =    -25.588 +j   -4.6707
704           3           4.8379 /_   58.9 =     2.4973 +j    4.1435
------------
714           1           23.096 /_ -178.7 =     -23.09 +j  -0.52482
714           2           26.012 /_   10.3 =      25.59 +j    4.6693
714           3           4.8399 /_ -121.1 =    -2.4996 +j   -4.1445

ELEMENT = "Line.L8"
704           1           25.029 /_  -60.8 =     12.215 +j   -21.846
704           2           52.123 /_ -122.0 =    -27.624 +j   -44.201
704           3           67.821 /_   76.9 =     15.409 +j    66.047
------------
720           1           25.054 /_  119.2 =    -12.213 +j    21.876
720           2           52.122 /_   58.0 =      27.65 +j    44.184
720           3           67.839 /_ -103.2 =    -15.437 +j   -66.059

ELEMENT = "Line.L9"
705           1           1.8349 /_    0.2 =     1.8349 +j 0.0048506
705           2           20.772 /_ -125.1 =    -11.935 +j   -17.001
705           3           19.771 /_   59.3 =     10.101 +j    16.996
------------
742           1           1.8341 /_  179.8 =    -1.8341 +j 0.0048791
742           2           20.773 /_   54.9 =     11.944 +j    16.995
742           3           19.779 /_ -120.7 =     -10.11 +j       -17

ELEMENT = "Line.L10"
705           1           20.219 /_  -61.1 =     9.7618 +j   -17.707
705           2        0.0076502 /_  -34.1 =  0.0063324 +j -0.0042927
705           3           20.226 /_  118.9 =    -9.7681 +j    17.711
------------
712           1           20.226 /_  118.9 =    -9.7612 +j    17.714
712           2      6.7181E-012 /_  -24.0 =  6.1391E-012 +j -2.7285E-012
712           3           20.226 /_  -61.1 =     9.7612 +j   -17.714

ELEMENT = "Line.L11"
706           1        0.0085091 /_   85.5 =  0.00066076 +j 0.0084834
706           2           9.7421 /_ -122.1 =    -5.1804 +j   -8.2506
706           3           9.7346 /_   57.9 =     5.1797 +j    8.2421
------------
725           1      6.2061E-012 /_  171.6 =  -6.1391E-012 +j 9.0949E-013
725           2           9.7418 /_   57.8 =     5.1877 +j    8.2456
725           3           9.7418 /_ -122.2 =    -5.1877 +j   -8.2456

ELEMENT = "Line.L12"
707           1         0.023084 /_   85.6 =  0.0017822 +j  0.023015
707           2           9.7727 /_ -122.0 =     -5.178 +j   -8.2882
707           3           9.7522 /_   57.9 =     5.1762 +j    8.2651
------------
724           1      8.1981E-013 /_  123.7 =  -4.5475E-013 +j 6.8212E-013
724           2           9.7717 /_   57.9 =     5.1978 +j    8.2746
724           3           9.7717 /_ -122.1 =    -5.1978 +j   -8.2746

ELEMENT = "Line.L13"
707           1           4.8092 /_  -60.3 =     2.3828 +j   -4.1774
707           2           32.605 /_ -122.1 =    -17.335 +j   -27.615
707           3           35.133 /_   64.8 =     14.952 +j    31.792
------------
722           1           4.8122 /_  119.7 =    -2.3825 +j     4.181
722           2           32.605 /_   57.9 =     17.338 +j    27.613
722           3           35.136 /_ -115.2 =    -14.956 +j   -31.794

ELEMENT = "Line.L14"
708           1           122.85 /_  -25.5 =     110.92 +j   -52.809
708           2           87.925 /_ -173.6 =    -87.375 +j   -9.8228
708           3           66.912 /_  110.6 =    -23.548 +j    62.631
------------
733           1           122.86 /_  154.5 =    -110.92 +j     52.82
733           2           87.934 /_    6.4 =     87.385 +j    9.8157
733           3           66.912 /_  -69.4 =     23.536 +j   -62.636

ELEMENT = "Line.L15"
708           1           10.251 /_  -63.0 =     4.6609 +j   -9.1297
708           2         0.010091 /_  -34.0 =  0.0083621 +j -0.0056491
708           3           10.259 /_  117.1 =    -4.6693 +j    9.1354
------------
732           1           10.259 /_  117.0 =    -4.6601 +j    9.1393
732           2      7.3467E-012 /_ -158.2 =  -6.8212E-012 +j -2.7285E-012
732           3           10.259 /_  -63.0 =     4.6601 +j   -9.1393

ELEMENT = "Line.L16"
709           1         0.022389 /_   85.3 =  0.0018245 +j  0.022315
709           2           19.651 /_ -120.8 =     -10.07 +j   -16.875
709           3           19.631 /_   59.1 =     10.069 +j    16.852
------------
731           1      1.6396E-012 /_  146.3 =  -1.3642E-012 +j 9.0949E-013
731           2            19.65 /_   59.1 =      10.09 +j    16.861
731           3            19.65 /_ -120.9 =     -10.09 +j   -16.861

ELEMENT = "Line.L17"
709           1           131.13 /_  -28.2 =     115.58 +j   -61.926
709           2           87.908 /_ -173.6 =    -87.356 +j   -9.8354
709           3           77.114 /_  111.5 =    -28.228 +j    71.762
------------
708           1           131.13 /_  151.8 =    -115.58 +j    61.938
708           2           87.917 /_    6.4 =     87.366 +j    9.8284
708           3           77.115 /_  -68.5 =     28.217 +j   -71.767

ELEMENT = "Line.L18"
710           1           20.519 /_  -61.7 =     9.7191 +j   -18.071
710           2        0.0062792 /_  -34.0 =  0.0052079 +j -0.003508
710           3           20.525 /_  118.3 =    -9.7243 +j    18.075
------------
735           1           20.524 /_  118.3 =    -9.7186 +j    18.077
735           2      9.7134E-012 /_   69.4 =  3.4106E-012 +j 9.0949E-012
735           3           20.524 /_  -61.7 =     9.7186 +j   -18.077

ELEMENT = "Line.L19"
710           1         0.038037 /_   85.3 =  0.0031063 +j   0.03791
710           2           9.7696 /_ -122.0 =    -5.1835 +j   -8.2811
710           3           9.7359 /_   57.9 =     5.1804 +j    8.2432
------------
736           1      5.5984E-013 /_  156.0 =  -5.1159E-013 +j 2.2737E-013
736           2           9.7684 /_   57.7 =     5.2168 +j    8.2587
736           3           9.7684 /_ -122.3 =    -5.2168 +j   -8.2587

ELEMENT = "Line.L20"
711           1           10.219 /_  -63.2 =     4.6029 +j   -9.1231
711           2         0.015563 /_  -33.9 =   0.012923 +j -0.0086721
711           3           10.232 /_  116.8 =    -4.6158 +j    9.1318
------------
741           1           10.231 /_  116.7 =    -4.6016 +j    9.1378
741           2                0 /_    0.0 =          0 +j         0
741           3           10.231 /_  -63.3 =     4.6016 +j   -9.1378

ELEMENT = "Line.L21"
711           1           20.457 /_  -61.9 =     9.6379 +j   -18.045
711           2        0.0062643 /_  -33.9 =  0.0052016 +j -0.0034906
711           3           20.463 /_  118.1 =    -9.6431 +j    18.048
------------
740           1           20.462 /_  118.1 =    -9.6375 +j    18.051
740           2      4.0674E-012 /_   63.4 =  1.819E-012 +j 3.638E-012
740           3           20.462 /_  -61.9 =     9.6375 +j   -18.051

ELEMENT = "Line.L22"
713           1           41.234 /_  -31.1 =     35.307 +j   -21.299
713           2           72.244 /_ -137.4 =    -53.194 +j   -48.884
713           3           72.426 /_   75.7 =     17.888 +j    70.182
------------
704           1           41.242 /_  148.9 =    -35.305 +j    21.318
704           2           72.249 /_   42.6 =     53.211 +j    48.872
704           3           72.438 /_ -104.3 =    -17.906 +j    -70.19

ELEMENT = "Line.L23"
714           1           19.194 /_    1.2 =      19.19 +j   0.41679
714           2           19.179 /_ -178.8 =    -19.175 +j   -0.4103
714           3         0.016264 /_ -156.5 =  -0.014909 +j -0.0064976
------------
718           1           19.193 /_ -178.8 =    -19.189 +j  -0.40103
718           2           19.193 /_    1.2 =     19.189 +j   0.40103
718           3       5.457E-012 /_  -90.0 =          0 +j -5.457E-012

ELEMENT = "Line.L24"
720           1            4.767 /_  -60.0 =     2.3868 +j   -4.1265
720           2           42.379 /_ -122.1 =    -22.489 +j    -35.92
720           3           44.808 /_   63.3 =     20.102 +j    40.046
------------
707           1           4.7901 /_  119.9 =    -2.3846 +j    4.1543
707           2           42.378 /_   57.9 =     22.513 +j    35.903
707           3            44.83 /_ -116.7 =    -20.129 +j   -40.058

ELEMENT = "Line.L25"
720           1         0.031159 /_   85.5 =    0.00242 +j  0.031065
720           2            9.743 /_ -122.0 =    -5.1608 +j   -8.2639
720           3           9.7154 /_   57.9 =     5.1584 +j    8.2329
------------
706           1        0.0085091 /_  -94.5 =  -0.00066076 +j -0.0084834
706           2           9.7421 /_   57.9 =     5.1804 +j    8.2506
706           3           9.7346 /_ -122.1 =    -5.1797 +j   -8.2421

ELEMENT = "Line.L26"
727           1           35.592 /_  -14.7 =     34.431 +j   -9.0151
727           2           35.892 /_ -166.7 =    -34.932 +j    -8.245
727           3           17.267 /_   88.3 =    0.50076 +j     17.26
------------
744           1           35.594 /_  165.3 =     -34.43 +j    9.0256
744           2           35.899 /_   13.3 =     34.941 +j    8.2388
744           3           17.272 /_  -91.7 =   -0.51074 +j   -17.264

ELEMENT = "Line.L27"
730           1           131.12 /_  -28.2 =     115.59 +j   -61.897
730           2           101.02 /_ -164.7 =     -97.42 +j   -26.714
730           3           90.454 /_  101.6 =    -18.167 +j    88.611
------------
709           1           131.12 /_  151.8 =    -115.59 +j    61.904
709           2           101.02 /_   15.3 =     97.426 +j     26.71
709           3           90.456 /_  -78.4 =      18.16 +j   -88.614

ELEMENT = "Line.L28"
733           1           105.98 /_  -30.3 =     91.479 +j   -53.519
733           2           68.551 /_ -172.4 =    -67.942 +j   -9.1168
733           3           66.912 /_  110.6 =    -23.536 +j    62.636
------------
734           1           105.99 /_  149.7 =    -91.477 +j     53.54
734           2           68.567 /_    7.6 =      67.96 +j    9.1045
734           3           66.913 /_  -69.4 =     23.517 +j   -62.645

ELEMENT = "Line.L29"
734           1           81.483 /_  -18.9 =     77.105 +j   -26.348
734           2           62.801 /_ -179.3 =    -62.795 +j   -0.8108
734           3           30.698 /_  117.8 =     -14.31 +j    27.159
------------
737           1           81.488 /_  161.1 =    -77.103 +j    26.371
737           2           62.821 /_    0.7 =     62.816 +j   0.79688
737           3           30.696 /_  -62.3 =     14.287 +j   -27.168

ELEMENT = "Line.L30"
734           1           20.474 /_  -61.6 =     9.7235 +j   -18.018
734           2           9.7704 /_ -121.9 =    -5.1648 +j   -8.2937
734           3           26.704 /_   99.8 =    -4.5587 +j    26.312
------------
710           1           20.487 /_  118.3 =    -9.7222 +j    18.034
710           2           9.7698 /_   58.0 =     5.1783 +j    8.2846
710           3           26.708 /_  -80.2 =     4.5439 +j   -26.318

ELEMENT = "Line.L31"
737           1           52.223 /_  -31.0 =     44.754 +j   -26.913
737           2           30.468 /_ -179.5 =    -30.467 +j  -0.25478
737           3           30.696 /_  117.7 =    -14.287 +j    27.168
------------
738           1            52.23 /_  149.0 =    -44.753 +j    26.928
738           2           30.481 /_    0.5 =      30.48 +j    0.2461
738           3           30.695 /_  -62.3 =     14.273 +j   -27.174

ELEMENT = "Line.L32"
738           1           30.662 /_  -62.3 =     14.242 +j   -27.153
738           2          0.03739 /_  -33.9 =   0.031047 +j -0.020835
738           3           30.695 /_  117.7 =    -14.273 +j    27.174
------------
711           1           30.674 /_  117.7 =    -14.241 +j    27.168
711           2         0.021827 /_  146.1 =  -0.018125 +j  0.012163
711           3           30.693 /_  -62.3 =     14.259 +j    -27.18

ELEMENT = "Line.L33"
744           1           17.253 /_  -31.7 =     14.674 +j   -9.0739
744           2           17.261 /_ -151.7 =    -15.193 +j    -8.194
744           3           17.276 /_   88.3 =    0.51877 +j    17.268
------------
728           1           17.256 /_  148.3 =    -14.673 +j    9.0799
728           2           17.264 /_   28.3 =     15.198 +j    8.1904
728           3           17.278 /_  -91.7 =   -0.52451 +j    -17.27

ELEMENT = "Line.L34"
744           1           9.7375 /_    0.4 =     9.7372 +j  0.075834
744           2           9.7294 /_ -179.6 =    -9.7292 +j -0.072377
744           3        0.0087457 /_ -156.7 =  -0.0080327 +j -0.0034587
------------
729           1           9.7367 /_ -179.6 =    -9.7365 +j -0.067401
729           2           9.7367 /_    0.4 =     9.7365 +j  0.067401
729           3      2.7285E-012 /_    0.0 =  2.7285E-012 +j         0

ELEMENT = "Line.L35"
799R          1           369.54 /_  -37.8 =     291.85 +j   -226.68
799R          2           278.24 /_ -152.6 =    -246.95 +j   -128.18
799R          3            357.7 /_   97.2 =    -44.893 +j    354.87
------------
701           1           369.62 /_  142.1 =    -291.83 +j    226.84
701           2           278.31 /_   27.4 =     247.08 +j     128.1
701           3           357.74 /_  -82.8 =      44.75 +j   -354.93

ELEMENT = "Transformer.REG1A"
799           1           406.49 /_  -37.8 =     321.03 +j   -249.35
799           2           406.49 /_  142.2 =    -321.03 +j    249.35
------------
799R          1           369.54 /_  142.2 =    -291.85 +j    226.68
799R          2           369.54 /_  -37.8 =     291.85 +j   -226.68

ELEMENT = "Transformer.REG1C"
799           3              389 /_   97.2 =    -48.821 +j    385.92
799           2              389 /_  -82.8 =     48.821 +j   -385.92
------------
799R          3            357.7 /_  -82.8 =     44.893 +j   -354.87
799R          2            357.7 /_   97.2 =    -44.893 +j    354.87

ELEMENT = "Line.JUMPER"
799           2       0.00017913 /_  -35.1 =  0.00014662 +j -0.00010291
------------
799R          2       0.00017913 /_  144.9 =  -0.00014662 +j 0.00010291

= = = = = = = = = = = = = = = = = = =  = = = = = = = = = = =  = =

Power Conversion Elements

  Bus     Phase    Magnitude, A     Angle      (Real)   +j  (Imag)

ELEMENT = "Load.S701A"
701           1           32.865 /_   -0.1 =     32.865 +j -0.052139
701           2           32.865 /_  179.9 =    -32.865 +j  0.052139

ELEMENT = "Load.S701B"
701           2           32.015 /_ -121.9 =    -16.919 +j    -27.18
701           3           32.015 /_   58.1 =     16.919 +j     27.18

ELEMENT = "Load.S701C"
701           3           83.357 /_  117.7 =     -38.69 +j    73.834
701           1           83.357 /_  -62.3 =      38.69 +j   -73.834

ELEMENT = "Load.S712C"
712           3           20.225 /_  118.9 =    -9.7602 +j    17.714
712           1           20.225 /_  -61.1 =     9.7602 +j   -17.714

ELEMENT = "Load.S713C"
713           3           20.222 /_  118.8 =     -9.751 +j    17.715
713           1           20.222 /_  -61.2 =      9.751 +j   -17.715

ELEMENT = "Load.S714A"
714           1           3.9015 /_    1.6 =        3.9 +j   0.10802
714           2           3.9015 /_ -178.4 =       -3.9 +j  -0.10802

ELEMENT = "Load.S714B"
714           2           4.8531 /_ -121.2 =    -2.5146 +j   -4.1508
714           3           4.8531 /_   58.8 =     2.5146 +j    4.1508

ELEMENT = "Load.S718A"
718           1           19.192 /_    1.2 =     19.188 +j   0.40099
718           2           19.192 /_ -178.8 =    -19.188 +j  -0.40099

ELEMENT = "Load.S720C"
720           3           20.313 /_  118.9 =    -9.8224 +j     17.78
720           1           20.313 /_  -61.1 =     9.8224 +j    -17.78

ELEMENT = "Load.S722B"
722           2           32.605 /_ -122.1 =    -17.339 +j   -27.612
722           3           32.605 /_   57.9 =     17.339 +j    27.612

ELEMENT = "Load.S722C"
722           3           4.8119 /_  119.7 =    -2.3823 +j    4.1809
722           1           4.8119 /_  -60.3 =     2.3823 +j   -4.1809

ELEMENT = "Load.S724B"
724           2           9.7716 /_ -122.1 =     -5.198 +j   -8.2744
724           3           9.7716 /_   57.9 =      5.198 +j    8.2744

ELEMENT = "Load.S725B"
725           2           9.7417 /_ -122.2 =    -5.1879 +j   -8.2454
725           3           9.7417 /_   57.8 =     5.1879 +j    8.2454

ELEMENT = "Load.S727C"
727           3           10.169 /_  117.2 =    -4.6476 +j    9.0445
727           1           10.169 /_  -62.8 =     4.6476 +j   -9.0445

ELEMENT = "Load.S728"
728           1           17.255 /_  -31.8 =     14.673 +j   -9.0797
728           2           17.264 /_ -151.7 =    -15.198 +j   -8.1902
728           3           17.278 /_   88.3 =    0.52526 +j     17.27

ELEMENT = "Load.S729A"
729           1           9.7364 /_    0.4 =     9.7362 +j  0.067385
729           2           9.7364 /_ -179.6 =    -9.7362 +j -0.067385

ELEMENT = "Load.S730C"
730           3           18.744 /_  118.5 =    -8.9354 +j    16.477
730           1           18.744 /_  -61.5 =     8.9354 +j   -16.477

ELEMENT = "Load.S731B"
731           2            19.65 /_ -120.9 =     -10.09 +j   -16.861
731           3            19.65 /_   59.1 =      10.09 +j    16.861

ELEMENT = "Load.S732C"
732           3           10.258 /_  117.0 =    -4.6596 +j     9.139
732           1           10.258 /_  -63.0 =     4.6596 +j    -9.139

ELEMENT = "Load.S733A"
733           1           19.455 /_    2.1 =     19.442 +j   0.69893
733           2           19.455 /_ -177.9 =    -19.442 +j  -0.69893

ELEMENT = "Load.S734C"
734           3           10.284 /_  116.9 =    -4.6475 +j     9.174
734           1           10.284 /_  -63.1 =     4.6475 +j    -9.174

ELEMENT = "Load.S735C"
735           3           20.523 /_  118.3 =    -9.7176 +j    18.077
735           1           20.523 /_  -61.7 =     9.7176 +j   -18.077

ELEMENT = "Load.S736B"
736           2           9.7683 /_ -122.3 =     -5.217 +j   -8.2584
736           3           9.7683 /_   57.7 =      5.217 +j    8.2584

ELEMENT = "Load.S737A"
737           1           32.353 /_    1.0 =     32.348 +j   0.54203
737           2           32.353 /_ -179.0 =    -32.348 +j  -0.54203

ELEMENT = "Load.S738A"
738           1           30.511 /_    0.4 =      30.51 +j   0.22519
738           2           30.511 /_ -179.6 =     -30.51 +j  -0.22519

ELEMENT = "Load.S740C"
740           3           20.462 /_  118.1 =    -9.6364 +j     18.05
740           1           20.462 /_  -61.9 =     9.6364 +j    -18.05

ELEMENT = "Load.S741C"
741           3           10.231 /_  116.7 =    -4.6011 +j    9.1376
741           1           10.231 /_  -63.3 =     4.6011 +j   -9.1376

ELEMENT = "Load.S742A"
742           1           1.8341 /_   -0.2 =     1.8341 +j -0.0048818
742           2           1.8341 /_  179.8 =    -1.8341 +j 0.0048818

ELEMENT = "Load.S742B"
742           2           19.779 /_ -120.7 =     -10.11 +j       -17
742           3           19.779 /_   59.3 =      10.11 +j        17

ELEMENT = "Load.S744A"
744           1           10.019 /_   -0.2 =     10.019 +j -0.027565
744           2           10.019 /_  179.8 =    -10.019 +j  0.027565

